pazopanib
  Mrv1816 10011818033D          

 31 34  0  0  0  0            999 V2000
    5.3461   -4.8054    0.7621 C   0  0  0  0  0  0  0  0  0  0  0  0
    4.9184   -5.2035    2.0901 N   0  0  0  0  0  0  0  0  0  0  0  0
    5.1336   -6.5241    2.4664 C   0  0  0  0  0  0  0  0  0  0  0  0
    6.4176   -7.1226    2.3581 C   0  0  0  0  0  0  0  0  0  0  0  0
    6.5821   -8.4708    2.7107 C   0  0  0  0  0  0  0  0  0  0  0  0
    7.6772   -9.2397    2.6602 N   0  0  0  0  0  0  0  0  0  0  0  0
    7.3688  -10.4295    3.0933 N   0  0  0  0  0  0  0  0  0  0  0  0
    8.3263  -11.4940    3.1448 C   0  0  0  0  0  0  0  0  0  0  0  0
    6.0612  -10.4910    3.4592 C   0  0  0  0  0  0  0  0  0  0  0  0
    5.3629  -11.6653    4.0262 C   0  0  0  0  0  0  0  0  0  0  0  0
    5.5279   -9.2305    3.1962 C   0  0  0  0  0  0  0  0  0  0  0  0
    4.2450   -8.6706    3.3288 C   0  0  0  0  0  0  0  0  0  0  0  0
    4.0583   -7.3205    2.9553 C   0  0  0  0  0  0  0  0  0  0  0  0
    4.2888   -4.2925    2.9313 C   0  0  0  0  0  0  0  0  0  0  0  0
    4.3676   -4.3663    4.3440 C   0  0  0  0  0  0  0  0  0  0  0  0
    3.7005   -3.3992    5.1152 C   0  0  0  0  0  0  0  0  0  0  0  0
    3.0077   -2.4098    4.5019 N   0  0  0  0  0  0  0  0  0  0  0  0
    2.9352   -2.3156    3.1514 C   0  0  0  0  0  0  0  0  0  0  0  0
    2.2800   -1.2416    2.6419 N   0  0  0  0  0  0  0  0  0  0  0  0
    2.2170   -0.8326    1.3422 C   0  0  0  0  0  0  0  0  0  0  0  0
    2.0376   -1.6905    0.2379 C   0  0  0  0  0  0  0  0  0  0  0  0
    1.9991   -1.1653   -1.0657 C   0  0  0  0  0  0  0  0  0  0  0  0
    2.1368    0.2235   -1.3043 C   0  0  0  0  0  0  0  0  0  0  0  0
    2.0969    0.7239   -2.7024 C   0  0  0  0  0  0  0  0  0  0  0  0
    2.3101    1.0940   -0.1915 C   0  0  0  0  0  0  0  0  0  0  0  0
    2.3301    0.5523    1.1130 C   0  0  0  0  0  0  0  0  0  0  0  0
    2.5736    2.8491   -0.3247 S   0  0  2  0  0  0  0  0  0  0  0  0
    4.2992    3.1500   -0.4678 N   0  0  0  0  0  0  0  0  0  0  0  0
    2.0593    3.6072    0.9923 O   0  0  0  0  0  0  0  0  0  0  0  0
    1.8394    3.5057   -1.5895 O   0  0  0  0  0  0  0  0  0  0  0  0
    3.5704   -3.2577    2.4051 N   0  0  0  0  0  0  0  0  0  0  0  0
  1  2  1  0  0  0  0
  2  3  1  0  0  0  0
  3  4  2  0  0  0  0
  4  5  1  0  0  0  0
  5  6  2  0  0  0  0
  6  7  1  0  0  0  0
  7  8  1  0  0  0  0
  7  9  1  0  0  0  0
  9 10  1  0  0  0  0
  9 11  2  0  0  0  0
  5 11  1  0  0  0  0
 11 12  1  0  0  0  0
 12 13  2  0  0  0  0
  3 13  1  0  0  0  0
  2 14  1  0  0  0  0
 14 15  2  0  0  0  0
 15 16  1  0  0  0  0
 16 17  2  0  0  0  0
 17 18  1  0  0  0  0
 18 19  1  0  0  0  0
 19 20  1  0  0  0  0
 20 21  2  0  0  0  0
 21 22  1  0  0  0  0
 22 23  2  0  0  0  0
 23 24  1  0  0  0  0
 23 25  1  0  0  0  0
 25 26  2  0  0  0  0
 20 26  1  0  0  0  0
 25 27  1  0  0  0  0
 27 28  1  0  0  0  0
 27 29  2  0  0  0  0
 27 30  2  0  0  0  0
 18 31  2  0  0  0  0
 14 31  1  0  0  0  0
$$$$
