tibolone
  Mrv1816 10011817593D          

 23 26  0  0  1  0            999 V2000
   -4.9087    3.7103    0.6242 C   0  0  0  0  0  0  0  0  0  0  0  0
   -4.0594    2.4861    1.0629 C   0  0  2  0  0  0  0  0  0  0  0  0
   -3.0683    2.0876   -0.0793 C   0  0  0  0  0  0  0  0  0  0  0  0
   -2.1511    1.0428    0.3984 C   0  0  0  0  0  0  0  0  0  0  0  0
   -2.6574   -0.0334    1.0622 C   0  0  0  0  0  0  0  0  0  0  0  0
   -1.7325   -1.0056    1.6786 C   0  0  0  0  0  0  0  0  0  0  0  0
   -0.3620   -1.1423    0.9672 C   0  0  0  0  0  0  0  0  0  0  0  0
    0.1834    0.1851    0.6475 C   0  0  0  0  0  0  0  0  0  0  0  0
    1.4132    0.4045    0.7538 O   0  0  0  0  0  0  0  0  0  0  0  0
   -0.7158    1.2428    0.1475 C   0  0  0  0  0  0  0  0  0  0  0  0
   -4.1371   -0.1400    1.1726 C   0  0  1  0  0  0  0  0  0  0  0  0
   -4.7113   -1.4105    1.8860 C   0  0  0  0  0  0  0  0  0  0  0  0
   -6.2635   -1.4702    1.8299 C   0  0  0  0  0  0  0  0  0  0  0  0
   -6.9421   -0.1543    2.3502 C   0  0  1  0  0  0  0  0  0  0  0  0
   -6.7126   -0.0794    3.9182 C   0  0  0  0  0  0  0  0  0  0  0  0
   -6.3625    1.0780    1.5576 C   0  0  1  0  0  0  0  0  0  0  0  0
   -7.3549    2.2078    1.9604 C   0  0  0  0  0  0  0  0  0  0  0  0
   -8.7200    1.5159    2.2337 C   0  0  0  0  0  0  0  0  0  0  0  0
   -8.4840   -0.0134    2.0450 C   0  0  2  0  0  0  0  0  0  0  0  0
   -9.3038   -0.7837    2.9290 O   0  0  0  0  0  0  0  0  0  0  0  0
   -8.8611   -0.4066    0.7699 C   0  0  0  0  0  0  0  0  0  0  0  0
   -9.1726   -0.7326   -0.3364 C   0  0  0  0  0  0  0  0  0  0  0  0
   -4.7933    1.2158    1.6937 C   0  0  2  0  0  0  0  0  0  0  0  0
  1  2  1  0  0  0  0
  2  3  1  0  0  0  0
  3  4  1  0  0  0  0
  4  5  2  0  0  0  0
  5  6  1  0  0  0  0
  6  7  1  0  0  0  0
  7  8  1  0  0  0  0
  8  9  2  0  0  0  0
  8 10  1  0  0  0  0
  4 10  1  0  0  0  0
  5 11  1  0  0  0  0
 11 12  1  0  0  0  0
 12 13  1  0  0  0  0
 13 14  1  0  0  0  0
 14 15  1  0  0  0  0
 14 16  1  0  0  0  0
 16 17  1  0  0  0  0
 17 18  1  0  0  0  0
 18 19  1  0  0  0  0
 14 19  1  0  0  0  0
 19 20  1  0  0  0  0
 19 21  1  0  0  0  0
 21 22  3  0  0  0  0
 16 23  1  0  0  0  0
  2 23  1  0  0  0  0
 11 23  1  0  0  0  0
$$$$
